Version 4
SHEET 1 880 680
SYMBOL res 16 80 R0
SYMATTR InstName R1
SYMBOL cap 176 80 R90
WINDOW 0 0 32 VBottom 2
WINDOW 3 32 32 VTop 2
SYMATTR InstName C1
SYMBOL ind 208 96 R0
SYMATTR InstName L1
SYMBOL ind 16 48 R0
SYMATTR InstName L2
