Version 4
SHEET 1 880 680
WIRE 128 64 16 64
WIRE 336 64 208 64
WIRE 16 128 16 64
WIRE 336 128 336 64
WIRE 16 288 16 208
WIRE 336 288 336 192
WIRE 336 288 16 288
WIRE 336 320 336 288
FLAG 336 320 0
SYMBOL voltage 16 112 R0
WINDOW 3 169 92 Right 1
WINDOW 123 0 0 Left 0
WINDOW 39 0 0 Left 0
SYMATTR InstName V1
SYMATTR Value PULSE(0 1 0 100m 0 0 100m)
SYMBOL res 224 48 R90
WINDOW 0 0 56 VBottom 2
WINDOW 3 32 56 VTop 2
SYMATTR InstName R1
SYMATTR Value 10k
SYMBOL diode 320 128 R0
SYMATTR InstName D1
SYMATTR Value 1N4148
TEXT -18 344 Left 2 !.tran 200m
