Version 4
SHEET 1 1400 680
WIRE -432 -624 -544 -624
WIRE 352 -624 -432 -624
WIRE -544 -608 -544 -624
WIRE -432 -592 -432 -624
WIRE 416 -256 304 -256
WIRE 352 -224 352 -624
WIRE 304 -208 304 -256
WIRE 320 -208 304 -208
WIRE 416 -192 416 -256
WIRE 416 -192 384 -192
WIRE 480 -192 416 -192
WIRE 592 -192 560 -192
WIRE 752 -192 592 -192
WIRE 816 -192 752 -192
WIRE 32 -176 -32 -176
WIRE 144 -176 96 -176
WIRE 320 -176 144 -176
WIRE 144 -144 144 -176
WIRE 592 -144 592 -192
WIRE 752 -112 736 -112
WIRE -32 -96 -32 -176
WIRE 752 -96 752 -112
WIRE 816 -96 816 -128
WIRE 816 -96 752 -96
WIRE 144 -16 144 -64
WIRE 592 0 592 -80
WIRE -544 160 -544 -544
WIRE -544 160 -608 160
WIRE -432 160 -432 -528
WIRE -432 160 -544 160
WIRE -544 192 -544 160
WIRE -432 208 -432 160
WIRE -608 256 -608 160
WIRE -544 336 -544 256
WIRE -432 336 -432 272
WIRE -432 336 -544 336
WIRE 352 336 352 -160
WIRE 352 336 -432 336
FLAG -608 256 0
FLAG -32 -16 0
FLAG -32 -176 B
FLAG 144 -16 0
FLAG 592 0 0
FLAG 736 -112 0
SYMBOL cap -448 208 R0
SYMATTR InstName C2
SYMATTR Value 0.1µ
SYMBOL Misc\\cell -544 192 R0
WINDOW 123 0 0 Left 0
WINDOW 39 0 0 Left 0
SYMATTR InstName V1
SYMATTR Value +15
SYMBOL Misc\\cell -544 -608 R0
WINDOW 123 0 0 Left 0
WINDOW 39 0 0 Left 0
SYMATTR InstName V2
SYMATTR Value +15
SYMBOL cap -448 -592 R0
SYMATTR InstName C1
SYMATTR Value 0.1µ
SYMBOL Opamps/UniversalOpamp2 352 -192 R0
WINDOW 0 21 38 Left 2
SYMATTR InstName U2
SYMBOL voltage -32 -112 R0
WINDOW 3 -140 142 Left 2
WINDOW 123 0 0 Left 0
WINDOW 39 0 0 Left 0
SYMATTR Value PULSE(0 1 0 1n 1n 0.01 1m 2)
SYMATTR InstName Vpre_ideal
SYMBOL cap 96 -192 R90
WINDOW 0 0 32 VBottom 2
WINDOW 3 32 32 VTop 2
SYMATTR InstName Csh1
SYMATTR Value 97p
SYMBOL res 128 -160 R0
SYMATTR InstName Rsh1
SYMATTR Value 147.99k
SYMBOL res 576 -208 R90
WINDOW 0 0 56 VBottom 2
WINDOW 3 32 56 VTop 2
SYMATTR InstName Rsh2
SYMATTR Value 148.02k
SYMBOL cap 576 -144 R0
SYMATTR InstName Csh2
SYMATTR Value 100p
SYMBOL cap 800 -192 R0
SYMATTR InstName C3
SYMATTR Value 15p
SYMBOL res 736 -208 R0
SYMATTR InstName R1
SYMATTR Value 100000000
TEXT -632 344 Left 2 !.tran 100u
