Version 4
SHEET 1 2164 680
WIRE -432 -624 -544 -624
WIRE 1024 -624 -432 -624
WIRE 1376 -624 1024 -624
WIRE -544 -608 -544 -624
WIRE -432 -592 -432 -624
WIRE 928 -208 864 -208
WIRE 1056 -208 992 -208
WIRE 864 -96 864 -208
WIRE 912 -96 864 -96
WIRE 1056 -96 1056 -208
WIRE 1056 -96 992 -96
WIRE 1136 -80 1104 -80
WIRE 1248 -80 1216 -80
WIRE 1440 -80 1328 -80
WIRE 1376 -48 1376 -624
WIRE 1024 -32 1024 -624
WIRE 1328 -32 1328 -80
WIRE 1344 -32 1328 -32
WIRE 752 -16 720 -16
WIRE 864 -16 864 -96
WIRE 864 -16 832 -16
WIRE 992 -16 864 -16
WIRE 1440 -16 1440 -80
WIRE 1440 -16 1408 -16
WIRE 1472 -16 1440 -16
WIRE 1584 -16 1552 -16
WIRE 1632 -16 1584 -16
WIRE 1056 0 1056 -96
WIRE 1104 0 1104 -80
WIRE 1104 0 1056 0
WIRE 1136 0 1104 0
WIRE 1248 0 1248 -80
WIRE 1248 0 1200 0
WIRE 1344 0 1248 0
WIRE 992 16 944 16
WIRE 1248 32 1248 0
WIRE 1584 32 1584 -16
WIRE 720 48 720 -16
WIRE 720 144 720 128
WIRE 944 144 944 16
WIRE 1248 144 1248 112
WIRE 1584 144 1584 96
WIRE -544 160 -544 -544
WIRE -544 160 -608 160
WIRE -432 160 -432 -528
WIRE -432 160 -544 160
WIRE -544 192 -544 160
WIRE -432 208 -432 160
WIRE -608 256 -608 160
WIRE -544 336 -544 256
WIRE -432 336 -432 272
WIRE -432 336 -544 336
WIRE 1024 336 1024 32
WIRE 1024 336 -432 336
WIRE 1376 336 1376 16
WIRE 1376 336 1024 336
FLAG -608 256 0
FLAG 1248 144 0
FLAG 1584 144 0
FLAG 1632 -16 OUT
FLAG 720 144 0
FLAG 944 144 0
SYMBOL cap -448 208 R0
SYMATTR InstName C2
SYMATTR Value 0.1µ
SYMBOL Misc\\cell -544 192 R0
WINDOW 123 0 0 Left 0
WINDOW 39 0 0 Left 0
SYMATTR InstName V1
SYMATTR Value +15
SYMBOL Misc\\cell -544 -608 R0
WINDOW 123 0 0 Left 0
WINDOW 39 0 0 Left 0
SYMATTR InstName V2
SYMATTR Value +15
SYMBOL cap -448 -592 R0
SYMATTR InstName C1
SYMATTR Value 0.1µ
SYMBOL Opamps/UniversalOpamp2 1376 -16 R0
WINDOW 0 21 38 Left 2
SYMATTR InstName U2
SYMBOL cap 1200 -16 R90
WINDOW 0 0 32 VBottom 2
WINDOW 3 32 32 VTop 2
SYMATTR InstName Csh1
SYMATTR Value 100p
SYMBOL res 1232 16 R0
SYMATTR InstName Rsh1
SYMATTR Value {X}
SYMBOL res 1568 -32 R90
WINDOW 0 0 56 VBottom 2
WINDOW 3 32 56 VTop 2
SYMATTR InstName Rsh2
SYMATTR Value {X}
SYMBOL cap 1568 32 R0
SYMATTR InstName Csh2
SYMATTR Value 100p
SYMBOL Opamps/UniversalOpamp2 1024 0 R0
WINDOW 0 21 38 Left 2
SYMATTR InstName U1
SYMBOL res 1008 -112 R90
WINDOW 0 0 56 VBottom 2
WINDOW 3 32 56 VTop 2
SYMATTR InstName Rf_pre
SYMATTR Value 680k
SYMBOL cap 992 -224 R90
WINDOW 0 0 32 VBottom 2
WINDOW 3 32 32 VTop 2
SYMATTR InstName Cf_pre
SYMATTR Value 220p
SYMBOL res 848 -32 R90
WINDOW 0 0 56 VBottom 2
WINDOW 3 32 56 VTop 2
SYMATTR InstName Rin
SYMATTR Value 56k
SYMBOL voltage 720 32 R0
WINDOW 123 0 0 Left 0
WINDOW 39 0 0 Left 0
WINDOW 0 39 76 Left 2
WINDOW 3 -54 260 Left 2
SYMATTR InstName V3
SYMATTR Value PULSE(0 -1 0 1n 1n 5u 1m)
SYMBOL res 1232 -96 R90
WINDOW 0 0 56 VBottom 2
WINDOW 3 32 56 VTop 2
SYMATTR InstName Rpz
SYMATTR Value 1500k
TEXT -632 344 Left 2 !.tran 100u
TEXT -184 -40 Left 2 !.step param X list 3k 10k 20k 50k 100k 150k
