Version 4
SHEET 1 2336 680
WIRE -432 -624 -544 -624
WIRE -112 -624 -432 -624
WIRE 608 -624 -112 -624
WIRE -544 -608 -544 -624
WIRE -432 -592 -432 -624
WIRE 608 -448 608 -624
WIRE 1376 -448 608 -448
WIRE 32 -432 0 -432
WIRE 0 -352 0 -432
WIRE 0 -352 -192 -352
WIRE 16 -352 0 -352
WIRE 96 -352 96 -432
WIRE 1296 -304 1232 -304
WIRE 1328 -304 1296 -304
WIRE 1440 -304 1408 -304
WIRE -112 -288 -112 -624
WIRE -192 -272 -192 -352
WIRE -192 -272 -256 -272
WIRE -144 -272 -192 -272
WIRE 96 -256 96 -352
WIRE 96 -256 -80 -256
WIRE 672 -256 560 -256
WIRE -336 -240 -368 -240
WIRE -256 -240 -256 -272
WIRE -144 -240 -192 -240
WIRE 1376 -240 1376 -448
WIRE 608 -224 608 -448
WIRE 1296 -224 1296 -304
WIRE 1344 -224 1296 -224
WIRE 560 -208 560 -256
WIRE 576 -208 560 -208
WIRE 1440 -208 1440 -304
WIRE 1440 -208 1408 -208
WIRE 1472 -208 1440 -208
WIRE 672 -192 672 -256
WIRE 672 -192 640 -192
WIRE 736 -192 672 -192
WIRE 848 -192 816 -192
WIRE 960 -192 848 -192
WIRE 1344 -192 960 -192
WIRE -368 -176 -368 -240
WIRE -80 -176 -80 -256
WIRE 176 -176 176 -288
WIRE 176 -176 -80 -176
WIRE 256 -176 256 -288
WIRE 256 -176 240 -176
WIRE 400 -176 256 -176
WIRE 576 -176 400 -176
WIRE -192 -160 -192 -240
WIRE 176 -160 176 -176
WIRE 400 -144 400 -176
WIRE 848 -144 848 -192
WIRE -368 -80 -368 -96
WIRE 400 -16 400 -64
WIRE 848 0 848 -80
WIRE 608 128 608 -160
WIRE 1376 128 1376 -176
WIRE 1376 128 608 128
WIRE -544 160 -544 -544
WIRE -544 160 -608 160
WIRE -432 160 -432 -528
WIRE -432 160 -544 160
WIRE -544 192 -544 160
WIRE -432 208 -432 160
WIRE -608 256 -608 160
WIRE -544 336 -544 256
WIRE -432 336 -432 272
WIRE -432 336 -544 336
WIRE -112 336 -112 -224
WIRE -112 336 -432 336
WIRE 608 336 608 128
WIRE 608 336 -112 336
FLAG -608 256 0
FLAG 400 -16 0
FLAG 848 0 0
FLAG 960 -192 OUT
FLAG -368 -80 0
FLAG -192 -160 0
FLAG 1152 -304 0
SYMBOL cap -448 208 R0
SYMATTR InstName C2
SYMATTR Value 0.1µ
SYMBOL Misc\\cell -544 192 R0
WINDOW 123 0 0 Left 0
WINDOW 39 0 0 Left 0
SYMATTR InstName V1
SYMATTR Value +12
SYMBOL Misc\\cell -544 -608 R0
WINDOW 123 0 0 Left 0
WINDOW 39 0 0 Left 0
SYMATTR InstName V2
SYMATTR Value +12
SYMBOL cap -448 -592 R0
SYMATTR InstName C1
SYMATTR Value 0.1µ
SYMBOL Opamps/UniversalOpamp2 608 -192 R0
WINDOW 0 21 38 Left 2
SYMATTR InstName U2
SYMBOL cap 240 -192 R90
WINDOW 0 0 32 VBottom 2
WINDOW 3 32 32 VTop 2
SYMATTR InstName Csh1
SYMATTR Value 97p
SYMBOL res 384 -160 R0
SYMATTR InstName Rsh1
SYMATTR Value 147.99k
SYMBOL res 832 -208 R90
WINDOW 0 0 56 VBottom 2
WINDOW 3 32 56 VTop 2
SYMATTR InstName Rsh2
SYMATTR Value 148.02k
SYMBOL cap 832 -144 R0
SYMATTR InstName Csh2
SYMATTR Value 100p
SYMBOL Opamps/UniversalOpamp2 -112 -256 R0
WINDOW 0 21 38 Left 2
SYMATTR InstName U1
SYMBOL res 112 -368 R90
WINDOW 0 0 56 VBottom 2
WINDOW 3 32 56 VTop 2
SYMATTR InstName Rf_pre
SYMATTR Value 681.08k
SYMBOL cap 96 -448 R90
WINDOW 0 0 32 VBottom 2
WINDOW 3 32 32 VTop 2
SYMATTR InstName Cf_pre
SYMATTR Value 218p
SYMBOL res -240 -256 R90
WINDOW 0 0 56 VBottom 2
WINDOW 3 32 56 VTop 2
SYMATTR InstName Rin
SYMATTR Value 55.306k
SYMBOL voltage -368 -192 R0
WINDOW 123 24 44 Left 2
WINDOW 39 0 0 Left 0
SYMATTR Value2 AC 1
SYMATTR InstName V3
SYMATTR Value PULSE(0 -1 0 1n 1n 10u 1m)
SYMBOL res 272 -304 R90
WINDOW 0 0 56 VBottom 2
WINDOW 3 32 56 VTop 2
SYMATTR InstName Rpz
SYMATTR Value 1500k
SYMBOL Opamps/UniversalOpamp2 1376 -208 R0
WINDOW 0 21 38 Left 2
SYMATTR InstName U4
SYMBOL res 1424 -320 R90
WINDOW 0 0 56 VBottom 2
WINDOW 3 32 56 VTop 2
SYMATTR InstName R1
SYMATTR Value 10k
SYMBOL res 1248 -320 R90
WINDOW 0 0 56 VBottom 2
WINDOW 3 32 56 VTop 2
SYMATTR InstName R2
SYMATTR Value 1k
TEXT -632 344 Left 2 !;tran 1000u
TEXT 32 184 Left 2 !;.step param X 1u 10u 1u
TEXT 920 224 Left 2 !.step param X 500 10000 500
TEXT 136 80 Left 2 !.ac dec 10 10 1800000
