Version 4
SHEET 1 1028 680
WIRE -432 -624 -544 -624
WIRE -112 -624 -432 -624
WIRE 608 -624 -112 -624
WIRE -544 -608 -544 -624
WIRE -432 -592 -432 -624
WIRE 32 -432 0 -432
WIRE 0 -352 0 -432
WIRE 0 -352 -192 -352
WIRE 16 -352 0 -352
WIRE 96 -352 96 -432
WIRE -112 -288 -112 -624
WIRE -192 -272 -192 -352
WIRE -192 -272 -256 -272
WIRE -144 -272 -192 -272
WIRE 96 -256 96 -352
WIRE 96 -256 -80 -256
WIRE 672 -256 560 -256
WIRE -336 -240 -368 -240
WIRE -256 -240 -256 -272
WIRE -144 -240 -192 -240
WIRE 608 -224 608 -624
WIRE 560 -208 560 -256
WIRE 576 -208 560 -208
WIRE 672 -192 672 -256
WIRE 672 -192 640 -192
WIRE 736 -192 672 -192
WIRE 848 -192 816 -192
WIRE 960 -192 848 -192
WIRE -368 -176 -368 -240
WIRE -80 -176 -80 -256
WIRE 176 -176 176 -256
WIRE 176 -176 -80 -176
WIRE 256 -176 256 -256
WIRE 256 -176 240 -176
WIRE 400 -176 256 -176
WIRE 576 -176 400 -176
WIRE -192 -160 -192 -240
WIRE 400 -144 400 -176
WIRE 848 -144 848 -192
WIRE -368 -80 -368 -96
WIRE 400 -16 400 -64
WIRE 848 0 848 -80
WIRE -544 160 -544 -544
WIRE -544 160 -608 160
WIRE -432 160 -432 -528
WIRE -432 160 -544 160
WIRE -544 192 -544 160
WIRE -432 208 -432 160
WIRE -608 256 -608 160
WIRE -544 336 -544 256
WIRE -432 336 -432 272
WIRE -432 336 -544 336
WIRE -112 336 -112 -224
WIRE -112 336 -432 336
WIRE 608 336 608 -160
WIRE 608 336 -112 336
FLAG -608 256 0
FLAG 400 -16 0
FLAG 848 0 0
FLAG 960 -192 OUT
FLAG -368 -80 0
FLAG -192 -160 0
SYMBOL cap -448 208 R0
SYMATTR InstName C2
SYMATTR Value 0.1µ
SYMBOL Misc\\cell -544 192 R0
WINDOW 123 0 0 Left 0
WINDOW 39 0 0 Left 0
SYMATTR InstName V1
SYMATTR Value +15
SYMBOL Misc\\cell -544 -608 R0
WINDOW 123 0 0 Left 0
WINDOW 39 0 0 Left 0
SYMATTR InstName V2
SYMATTR Value +15
SYMBOL cap -448 -592 R0
SYMATTR InstName C1
SYMATTR Value 0.1µ
SYMBOL Opamps/UniversalOpamp2 608 -192 R0
WINDOW 0 21 38 Left 2
SYMATTR InstName U2
SYMBOL cap 240 -192 R90
WINDOW 0 0 32 VBottom 2
WINDOW 3 32 32 VTop 2
SYMATTR InstName Csh1
SYMATTR Value 150p
SYMBOL res 384 -160 R0
SYMATTR InstName Rsh1
SYMATTR Value 100k
SYMBOL res 832 -208 R90
WINDOW 0 0 56 VBottom 2
WINDOW 3 32 56 VTop 2
SYMATTR InstName Rsh2
SYMATTR Value 100k
SYMBOL cap 832 -144 R0
SYMATTR InstName Csh2
SYMATTR Value 150p
SYMBOL Opamps/UniversalOpamp2 -112 -256 R0
WINDOW 0 21 38 Left 2
SYMATTR InstName U1
SYMBOL res 112 -368 R90
WINDOW 0 0 56 VBottom 2
WINDOW 3 32 56 VTop 2
SYMATTR InstName Rf_pre
SYMATTR Value 560k
SYMBOL cap 96 -448 R90
WINDOW 0 0 32 VBottom 2
WINDOW 3 32 32 VTop 2
SYMATTR InstName Cf_pre
SYMATTR Value 330p
SYMBOL res -240 -256 R90
WINDOW 0 0 56 VBottom 2
WINDOW 3 32 56 VTop 2
SYMATTR InstName Rin
SYMATTR Value 47k
SYMBOL voltage -368 -192 R0
WINDOW 123 0 0 Left 0
WINDOW 39 0 0 Left 0
SYMATTR InstName V3
SYMATTR Value PULSE(0 -1 0 1n 1n 5u 1m)
SYMBOL res 272 -272 R90
WINDOW 0 0 56 VBottom 2
WINDOW 3 32 56 VTop 2
SYMATTR InstName R1
SYMATTR Value 1200000
TEXT -632 344 Left 2 !.tran 200u
