Version 4
SHEET 1 880 680
WIRE -160 -16 -272 -16
WIRE 352 -16 -160 -16
WIRE -272 0 -272 -16
WIRE -160 16 -160 -16
WIRE 32 96 -16 96
WIRE 144 96 112 96
WIRE 176 96 144 96
WIRE 304 96 256 96
WIRE 368 96 304 96
WIRE 464 96 448 96
WIRE -16 128 -16 96
WIRE 144 128 144 96
WIRE 352 128 352 -16
WIRE 304 144 304 96
WIRE 320 144 304 144
WIRE -272 160 -272 64
WIRE -272 160 -336 160
WIRE -160 160 -160 80
WIRE -160 160 -272 160
WIRE 464 160 464 96
WIRE 464 160 384 160
WIRE 480 160 464 160
WIRE 320 176 304 176
WIRE -272 192 -272 160
WIRE -160 208 -160 160
WIRE -336 256 -336 160
WIRE -16 256 -16 208
WIRE 144 256 144 208
WIRE 304 256 304 176
WIRE -272 336 -272 256
WIRE -160 336 -160 272
WIRE -160 336 -272 336
WIRE 352 336 352 192
WIRE 352 336 -160 336
FLAG -16 256 0
FLAG 304 256 0
FLAG 144 256 0
FLAG -336 256 0
FLAG 144 96 Vin
FLAG 480 160 OUT
SYMBOL cap -176 208 R0
SYMATTR InstName C2
SYMATTR Value 0.1µ
SYMBOL Misc\\cell -272 192 R0
WINDOW 123 0 0 Left 0
WINDOW 39 0 0 Left 0
SYMATTR InstName V1
SYMATTR Value +15
SYMBOL Misc\\cell -272 0 R0
WINDOW 123 0 0 Left 0
WINDOW 39 0 0 Left 0
SYMATTR InstName V2
SYMATTR Value +15
SYMBOL res 128 80 R90
WINDOW 0 0 56 VBottom 2
WINDOW 3 32 56 VTop 2
SYMATTR InstName Rg
SYMATTR Value 50
SYMBOL res 160 112 R270
WINDOW 0 32 56 VTop 2
WINDOW 3 0 56 VBottom 2
SYMATTR InstName R1
SYMATTR Value 10k
SYMBOL res 464 80 R90
WINDOW 0 0 56 VBottom 2
WINDOW 3 32 56 VTop 2
SYMATTR InstName Rf
SYMATTR Value 68k
SYMBOL voltage -16 112 R0
WINDOW 3 -70 186 Left 2
WINDOW 123 0 0 Left 0
WINDOW 39 0 0 Left 0
SYMATTR InstName V3
SYMATTR Value SINE(0 0.1 1k)
SYMBOL res 128 112 R0
SYMATTR InstName R50
SYMATTR Value 50
SYMBOL cap -176 16 R0
SYMATTR InstName C1
SYMATTR Value 0.1µ
SYMBOL Opamps/UniversalOpamp2 352 160 R0
SYMATTR InstName U2
TEXT -356 346 Left 2 !.tran 3m
